#
# CIF written by cell_write_cif: Keith Refson, Apr 2010
#
data_optimisation
_audit_creation_date '23:49:10 (GMT+1.0) 12th August 2024'
_audit_creation_method 'Generated by CASTEP 24.100'
 
_symmetry_Int_Tables_number           2
_symmetry_space_group_name_Hall    '-P 1'
_symmetry_space_group_name_H-M     'P-1'
loop_
_symmetry_equiv_pos_as_xyz
 x,y,z
 -x,-y,-z
 
_cell_length_a            4.780000009774208
_cell_length_b            5.575000011399834
_cell_length_c            6.091000012454961
_cell_angle_alpha       101.870999999999995
_cell_angle_beta        103.337000000000003
_cell_angle_gamma        97.417999999999992
 
loop_
_atom_site_label
_atom_site_type_symbol
_atom_site_fract_x
_atom_site_fract_y
_atom_site_fract_z
_atom_site_U_iso_or_equiv
_atom_site_occupancy
O1      O   0.589613135140516  0.039181834300102  0.416466373437170 0.0100 1.0000
O3      O   0.781275128670140  0.890784883749097  0.107483201154810 0.0100 1.0000
O5      O   0.315739225519834  0.650224933636944  0.122047103953973 0.0100 1.0000
O7      O   0.772477566206857  0.634494937705909  0.393093607002252 0.0100 1.0000
Na1     Na  0.034164587114085  0.314074059962408  0.208139500326454 0.0100 1.0000
S1      S   0.614679065072185  0.776770386784293  0.245829174286429 0.0100 1.0000
