#
# CIF written by cell_write_cif: Keith Refson, Apr 2010
#
data_phonon
_audit_creation_date '16:41:22 (GMT+1.0) 21st June 2016'
_audit_creation_method 'Generated by CASTEP  6.100'
 
loop_
_symmetry_equiv_pos_as_xyz
 x,y,z
 -x,-y,-z
 
_cell_length_a            4.779999981956138
_cell_length_b            5.574999978955119
_cell_length_c            6.090999977007290
_cell_angle_alpha       101.870999999999995
_cell_angle_beta        103.337000000000003
_cell_angle_gamma        97.417999999999992
 
loop_
_atom_site_label
_atom_site_fract_x
_atom_site_fract_y
_atom_site_fract_z
_atom_site_U_iso_or_equiv
_atom_site_occupancy
O1     0.553873511015058  0.019030551814453  0.440861521761563 0.0100 1.0000
O3     0.758890006310974  0.907385961704597  0.139813692470473 0.0100 1.0000
O5     0.321294335192985  0.656057392413123  0.140674973065898 0.0100 1.0000
O7     0.756276673587323  0.649735671920664  0.403632695080513 0.0100 1.0000
Na1    0.017700153029358  0.317755134905272  0.204064187693102 0.0100 1.0000
S1     0.603229729354986  0.785406184377756  0.263766371790565 0.0100 1.0000
