data_Sodium                                                                          

_audit_creation_method             'generated by GULP'

_symmetry_space_group_name_H-M     'P 1'
_symmetry_Int_Tables_number        1
_symmetry_cell_setting             triclinic

_cell_length_a                        4.5135
_cell_length_b                        5.1866
_cell_length_c                        5.6495
_cell_angle_alpha                  101.8461
_cell_angle_beta                   103.2074
_cell_angle_gamma                   97.6026

loop_
_atom_site_label
_atom_site_fract_x
_atom_site_fract_y
_atom_site_fract_z
_atom_site_occupancy
  S6          0.61154      0.78124      0.24744  1.0000
  S6          0.40628      0.23651      0.74011  1.0000
  Na1         0.05164      0.28383      0.19468  1.0000
  Na1         0.96619      0.73392      0.79287  1.0000
  O3          0.56156      0.99543      0.38560  1.0000
  O3          0.45626      0.02232      0.60194  1.0000
  O2          0.74248      0.88272      0.15165  1.0000
  O2          0.27534      0.13503      0.83589  1.0000
  O2          0.37470      0.69682      0.15901  1.0000
  O2          0.64313      0.32093      0.82853  1.0000
  O2          0.72753      0.70509      0.39281  1.0000
  O2          0.29030      0.31267      0.59474  1.0000
