#generated using pymatgen
data_ZnO
_symmetry_space_group_name_H-M   P6_3mc
_cell_length_a   3.29505813
_cell_length_b   3.29505813
_cell_length_c   5.28482419
_cell_angle_alpha   90.00000000
_cell_angle_beta   90.00000000
_cell_angle_gamma   120.00000000
_symmetry_Int_Tables_number   186
_chemical_formula_structural   ZnO
_chemical_formula_sum   'Zn2 O2'
_cell_volume   49.6920985543
_cell_formula_units_Z   2
loop_
 _symmetry_equiv_pos_site_id
 _symmetry_equiv_pos_as_xyz
  1  'x+1/6, y+1/6, z+1/6'
  2  'x-y+1/6, x+1/6, z+1/3'
  3  '-y+1/6, x-y+1/6, z+1/6'
  4  '-x+1/6, -y+1/6, z+1/3'
  5  '-x+y+1/6, -x+1/6, z+1/6'
  6  'y+1/6, -x+y+1/6, z+1/3'
  7  'y+1/6, x+1/6, z+1/3'
  8  'x+1/6, x-y+1/6, z+1/6'
  9  'x-y+1/6, -y+1/6, z+1/3'
  10  '-y+1/6, -x+1/6, z+1/6'
  11  '-x+1/6, -x+y+1/6, z+1/3'
  12  '-x+y+1/6, y+1/6, z+1/6'
loop_
 _atom_site_type_symbol
 _atom_site_label
 _atom_site_symmetry_multiplicity
 _atom_site_fract_x
 _atom_site_fract_y
 _atom_site_fract_z
 _atom_site_occupancy
  Zn  Zn1  2  0.333333  0.666667  0.000900  1
  O  O2  2  0.333333  0.666667  0.381600  1
