data_calcite                                                                         

_audit_creation_method             'generated by GULP'

_symmetry_space_group_name_H-M     'P 1'
_symmetry_Int_Tables_number        1
_symmetry_cell_setting             triclinic

_cell_length_a                        6.3757
_cell_length_b                        6.3757
_cell_length_c                        6.3757
_cell_angle_alpha                   45.9787
_cell_angle_beta                    45.9787
_cell_angle_gamma                   45.9787

loop_
_atom_site_label
_atom_site_fract_x
_atom_site_fract_y
_atom_site_fract_z
_atom_site_occupancy
  Ca          0.00000      0.00000      0.00000  1.0000
  Ca          0.50000      0.50000      0.50000  1.0000
  C           0.25000      0.25000      0.25000  1.0000
  C           0.75000      0.75000      0.75000  1.0000
  O           0.50265      0.99735      0.25000  1.0000
  O           0.25000      0.50265      0.99735  1.0000
  O           0.99735      0.25000      0.50265  1.0000
  O           0.49735      0.00265      0.75000  1.0000
  O           0.75000      0.49735      0.00265  1.0000
  O           0.00265      0.75000      0.49735  1.0000
