#generated using pymatgen
data_CaCO3
_symmetry_space_group_name_H-M   R-3c
_cell_length_a   6.37570000
_cell_length_b   6.37570000
_cell_length_c   6.37570000
_cell_angle_alpha   45.97870000
_cell_angle_beta   45.97870000
_cell_angle_gamma   45.97870000
_symmetry_Int_Tables_number   167
_chemical_formula_structural   CaCO3
_chemical_formula_sum   'Ca2 C2 O6'
_cell_volume   122.229108123
_cell_formula_units_Z   2
loop_
 _symmetry_equiv_pos_site_id
 _symmetry_equiv_pos_as_xyz
  1  'x, y, z'
  2  '-x, -y, -z'
  3  'z, x, y'
  4  '-z, -x, -y'
  5  'y, z, x'
  6  '-y, -z, -x'
  7  '-x+1/2, -z+1/2, -y+1/2'
  8  'x+1/2, z+1/2, y+1/2'
  9  '-z+1/2, -y+1/2, -x+1/2'
  10  'z+1/2, y+1/2, x+1/2'
  11  '-y+1/2, -x+1/2, -z+1/2'
  12  'y+1/2, x+1/2, z+1/2'
loop_
 _atom_site_type_symbol
 _atom_site_label
 _atom_site_symmetry_multiplicity
 _atom_site_fract_x
 _atom_site_fract_y
 _atom_site_fract_z
 _atom_site_occupancy
  Ca  Ca1  2  0.500000  0.500000  0.500000  1
  C  C2  2  0.750000  0.750000  0.750000  1
  O  O3  6  0.502650  0.997350  0.250000  1
