#generated using pymatgen
data_CaCO3
_symmetry_space_group_name_H-M   R-3c
_cell_length_a   4.98018705
_cell_length_b   4.98018705
_cell_length_c   17.07158942
_cell_angle_alpha   90.00000000
_cell_angle_beta   90.00000000
_cell_angle_gamma   120.00000000
_symmetry_Int_Tables_number   167
_chemical_formula_structural   CaCO3
_chemical_formula_sum   'Ca6 C6 O18'
_cell_volume   366.687324369
_cell_formula_units_Z   6
loop_
 _symmetry_equiv_pos_site_id
 _symmetry_equiv_pos_as_xyz
  1  'x, y, z'
  2  '-x, -y, -z'
  3  '-x+y, -x, z'
  4  'x-y, x, -z'
  5  '-y, x-y, z'
  6  'y, -x+y, -z'
  7  '-x+2/3, -x+y+1/3, -z+5/6'
  8  'x+1/3, x-y+2/3, z+1/6'
  9  'x-y+2/3, -y+1/3, -z+5/6'
  10  '-x+y+1/3, y+2/3, z+1/6'
  11  'y+2/3, x+1/3, -z+5/6'
  12  '-y+1/3, -x+2/3, z+1/6'
  13  'x+1/3, y+2/3, z+2/3'
  14  '-x+1/3, -y+2/3, -z+2/3'
  15  '-x+y+1/3, -x+2/3, z+2/3'
  16  'x-y+1/3, x+2/3, -z+2/3'
  17  '-y+1/3, x-y+2/3, z+2/3'
  18  'y+1/3, -x+y+2/3, -z+2/3'
  19  '-x, -x+y, -z+1/2'
  20  'x+2/3, x-y+1/3, z+5/6'
  21  'x-y, -y, -z+1/2'
  22  '-x+y+2/3, y+1/3, z+5/6'
  23  'y, x, -z+1/2'
  24  '-y+2/3, -x+1/3, z+5/6'
  25  'x+2/3, y+1/3, z+1/3'
  26  '-x+2/3, -y+1/3, -z+1/3'
  27  '-x+y+2/3, -x+1/3, z+1/3'
  28  'x-y+2/3, x+1/3, -z+1/3'
  29  '-y+2/3, x-y+1/3, z+1/3'
  30  'y+2/3, -x+y+1/3, -z+1/3'
  31  '-x+1/3, -x+y+2/3, -z+1/6'
  32  'x, x-y, z+1/2'
  33  'x-y+1/3, -y+2/3, -z+1/6'
  34  '-x+y, y, z+1/2'
  35  'y+1/3, x+2/3, -z+1/6'
  36  '-y, -x, z+1/2'
loop_
 _atom_site_type_symbol
 _atom_site_label
 _atom_site_symmetry_multiplicity
 _atom_site_fract_x
 _atom_site_fract_y
 _atom_site_fract_z
 _atom_site_occupancy
  Ca  Ca1  6  0.000000  0.000000  0.500000  1.0
  C  C2  6  0.000000  0.000000  0.750000  1.0
  O  O3  18  0.919317  0.333333  0.583333  1.0
