#generated using pymatgen
data_Ca5P3O12F
_symmetry_space_group_name_H-M   P6_3/m
_cell_length_a   9.44664403
_cell_length_b   9.44664403
_cell_length_c   6.92579265
_cell_angle_alpha   90.00000000
_cell_angle_beta   90.00000000
_cell_angle_gamma   120.00000000
_symmetry_Int_Tables_number   176
_chemical_formula_structural   Ca5P3O12F
_chemical_formula_sum   'Ca10 P6 O24 F2'
_cell_volume   535.248202476
_cell_formula_units_Z   2
loop_
 _symmetry_equiv_pos_site_id
 _symmetry_equiv_pos_as_xyz
  1  'x+1/6, y+1/6, z+1/6'
  2  '-x+1/6, -y+1/6, -z+1/6'
  3  'x-y+1/6, x+1/6, z+1/3'
  4  '-x+y+1/6, -x+1/6, -z+1/3'
  5  '-y+1/6, x-y+1/6, z+1/6'
  6  'y+1/6, -x+y+1/6, -z+1/6'
  7  '-x+1/6, -y+1/6, z+1/3'
  8  'x+1/6, y+1/6, -z+1/3'
  9  '-x+y+1/6, -x+1/6, z+1/6'
  10  'x-y+1/6, x+1/6, -z+1/6'
  11  'y+1/6, -x+y+1/6, z+1/3'
  12  '-y+1/6, x-y+1/6, -z+1/3'
loop_
 _atom_site_type_symbol
 _atom_site_label
 _atom_site_symmetry_multiplicity
 _atom_site_fract_x
 _atom_site_fract_y
 _atom_site_fract_z
 _atom_site_occupancy
  Ca  Ca1  4  0.333333  0.666667  0.000805  1
  Ca  Ca2  6  0.243363  0.996260  0.250000  1
  P  P3  6  0.397682  0.368418  0.250000  1
  O  O4  6  0.326397  0.484735  0.250000  1
  O  O5  6  0.588343  0.466458  0.250000  1
  O  O6  12  0.340609  0.255788  0.069686  1
  F  F7  2  0.000000  0.000000  0.250000  1
